Circuit: * C:\Users\yifan\OneDrive - University of Toronto\School Work\4th year\ECE496 Capstone\Winter Expriments\LM13700-vca\LM13700-spice-model-master\lm13700_test.asc

Direct Newton iteration for .op point succeeded.

Date: Sat Jan 18 11:57:16 2025
Total elapsed time: 0.106 seconds.

tnom = 27
temp = 27
method = modified trap
totiter = 8271
traniter = 8230
tranpoints = 4031
accept = 2540
rejected = 1491
matrix size = 22
fillins = 5
solver = Normal
Matrix Compiler1: 1.70 KB object code size  0.3/0.2/[0.1]
Matrix Compiler2: 2.28 KB object code size  0.2/0.3/[0.2]

